CaCl2
APtclcactv11192305103D 0   0.00000     0.00000
 
  3  0  0  0  0  0  0  0  0  0999 V2000
   -8.2990   -0.0002   -0.0000 Ca  0  2  0  0  0  0  0  0  0  0  0  0
    0.3613    0.0000    0.0000 Cl  0  5  0  0  0  0  0  0  0  0  0  0
    9.0216    0.0002    0.0000 Cl  0  5  0  0  0  0  0  0  0  0  0  0
M  CHG  3   1   2   2  -1   3  -1
M  END
$$$$
